187l_ligand
     RDKit          3D

  8  8  0  0  0  0  0  0  0  0999 V2000
   26.6405    6.1271    4.7004 C   0  0  0  0  0  0  0  0  0  0  0  0
   26.7864    5.6259    3.4030 C   0  0  0  0  0  0  0  0  0  0  0  0
   27.2633    6.4549    2.3826 C   0  0  0  0  0  0  0  0  0  0  0  0
   27.5942    7.7852    2.6598 C   0  0  0  0  0  0  0  0  0  0  0  0
   27.4483    8.2864    3.9573 C   0  0  0  0  0  0  0  0  0  0  0  0
   26.9715    7.4573    4.9776 C   0  0  0  0  0  0  0  0  0  0  0  0
   26.1339    5.2462    5.7846 C   0  0  0  0  0  0  0  0  0  0  0  0
   28.1009    8.6661    1.5757 C   0  0  0  0  0  0  0  0  0  0  0  0
  1  2  2  0  0  1
  1  6  1  0  0  1
  1  7  1  0  0  2
  2  3  1  0  0  1
  3  4  2  0  0  1
  4  5  1  0  0  1
  4  8  1  0  0  2
  5  6  2  0  0  1
M  END
>  <MOLECULAR_FORMULA>  (1) 
C8H10

>  <MOLECULAR_WEIGHT>  (1) 
106.1

>  <NUM_HB_ATOMS>  (1) 
0  

>  <NUM_ROTOR>  (1) 
0  

>  <XLOGP2>  (1) 
2.86 

$$$$
