1ado_ligand
     RDKit          3D

 10  9  0  0  0  0  0  0  0  0999 V2000
   23.1635   27.2015   23.5457 P   0  0  0  0  0  7  0  0  0  0  0  0
   23.1702   25.7458   23.9515 O   0  0  0  0  0  0  0  0  0  0  0  0
   21.7933   27.5835   23.0308 O   0  0  0  0  0  0  0  0  0  0  0  0
   24.2171   27.4432   22.4874 O   0  0  0  0  0  0  0  0  0  0  0  0
   23.5258   28.1278   24.9211 O   0  0  0  0  0  0  0  0  0  0  0  0
   23.5102   29.4595   24.4973 C   0  0  0  0  0  0  0  0  0  0  0  0
   24.3429   30.2952   25.4175 C   0  0  0  0  0  0  0  0  0  0  0  0
   24.0027   30.4240   26.5820 O   0  0  0  0  0  0  0  0  0  0  0  0
   25.5812   30.9912   24.9388 C   0  0  0  0  0  0  0  0  0  0  0  0
   25.8202   30.7302   23.5879 O   0  0  0  0  0  0  0  0  0  0  0  0
  1  2  2  0  0  2
  1  3  2  0  0  2
  1  4  2  0  0  2
  1  5  1  0  0  2
  5  6  1  0  0  2
  6  7  1  0  0  2
  7  8  2  0  0  2
  7  9  1  0  0  2
  9 10  1  0  0  2
M  END
>  <MOLECULAR_FORMULA>  (1) 
C3H5O6P

>  <MOLECULAR_WEIGHT>  (1) 
168.0

>  <NUM_HB_ATOMS>  (1) 
6  

>  <NUM_ROTOR>  (1) 
3  

>  <XLOGP2>  (1) 
-2.13

$$$$
